*SPEF "ieee 1481-1999"
*DESIGN "user_proj_example"
*DATE "11:11:11 Fri 11 11, 1111"
*VENDOR "OpenRCX"
*PROGRAM "Parallel Extraction"
*VERSION "1.0"
*DESIGN_FLOW "NAME_SCOPE LOCAL" "PIN_CAP NONE"
*DIVIDER /
*DELIMITER :
*BUS_DELIMITER []
*T_UNIT 1 NS
*C_UNIT 1 PF
*R_UNIT 1 OHM
*L_UNIT 1 HENRY

*NAME_MAP
*1 io_in[0]
*2 io_in[10]
*3 io_in[11]
*4 io_in[12]
*5 io_in[13]
*6 io_in[14]
*7 io_in[15]
*8 io_in[16]
*9 io_in[17]
*10 io_in[18]
*11 io_in[19]
*12 io_in[1]
*13 io_in[20]
*14 io_in[21]
*15 io_in[22]
*16 io_in[23]
*17 io_in[24]
*18 io_in[25]
*19 io_in[26]
*20 io_in[27]
*21 io_in[28]
*22 io_in[29]
*23 io_in[2]
*24 io_in[30]
*25 io_in[31]
*26 io_in[32]
*27 io_in[33]
*28 io_in[34]
*29 io_in[35]
*30 io_in[36]
*31 io_in[37]
*32 io_in[3]
*33 io_in[4]
*34 io_in[5]
*35 io_in[6]
*36 io_in[7]
*37 io_in[8]
*38 io_in[9]
*39 io_oeb[0]
*40 io_oeb[10]
*41 io_oeb[11]
*42 io_oeb[12]
*43 io_oeb[13]
*44 io_oeb[14]
*45 io_oeb[15]
*46 io_oeb[16]
*47 io_oeb[17]
*48 io_oeb[18]
*49 io_oeb[19]
*50 io_oeb[1]
*51 io_oeb[20]
*52 io_oeb[21]
*53 io_oeb[22]
*54 io_oeb[23]
*55 io_oeb[24]
*56 io_oeb[25]
*57 io_oeb[26]
*58 io_oeb[27]
*59 io_oeb[28]
*60 io_oeb[29]
*61 io_oeb[2]
*62 io_oeb[30]
*63 io_oeb[31]
*64 io_oeb[32]
*65 io_oeb[33]
*66 io_oeb[34]
*67 io_oeb[35]
*68 io_oeb[36]
*69 net244
*70 io_oeb[3]
*71 io_oeb[4]
*72 io_oeb[5]
*73 io_oeb[6]
*74 io_oeb[7]
*75 io_oeb[8]
*76 io_oeb[9]
*77 io_out[0]
*78 io_out[10]
*79 io_out[11]
*80 io_out[12]
*81 io_out[13]
*82 io_out[14]
*83 io_out[15]
*84 io_out[16]
*85 io_out[17]
*86 io_out[18]
*87 io_out[19]
*88 io_out[1]
*89 io_out[20]
*90 io_out[21]
*91 io_out[22]
*92 io_out[23]
*93 io_out[24]
*94 io_out[25]
*95 io_out[26]
*96 io_out[27]
*97 io_out[28]
*98 io_out[29]
*99 io_out[2]
*100 io_out[30]
*101 io_out[31]
*102 net245
*103 net246
*104 net247
*105 net248
*106 net249
*107 net250
*108 io_out[3]
*109 io_out[4]
*110 io_out[5]
*111 io_out[6]
*112 io_out[7]
*113 io_out[8]
*114 io_out[9]
*115 net251
*116 net252
*117 net253
*118 la_data_in[0]
*119 la_data_in[10]
*120 la_data_in[11]
*121 la_data_in[12]
*122 la_data_in[13]
*123 la_data_in[14]
*124 la_data_in[15]
*125 la_data_in[16]
*126 la_data_in[17]
*127 la_data_in[18]
*128 la_data_in[19]
*129 la_data_in[1]
*130 la_data_in[20]
*131 la_data_in[21]
*132 la_data_in[22]
*133 la_data_in[23]
*134 la_data_in[24]
*135 la_data_in[25]
*136 la_data_in[26]
*137 la_data_in[27]
*138 la_data_in[28]
*139 la_data_in[29]
*140 la_data_in[2]
*141 la_data_in[30]
*142 la_data_in[31]
*143 la_data_in[32]
*144 la_data_in[33]
*145 la_data_in[34]
*146 la_data_in[35]
*147 la_data_in[36]
*148 la_data_in[37]
*149 la_data_in[38]
*150 la_data_in[39]
*151 la_data_in[3]
*152 la_data_in[40]
*153 la_data_in[41]
*154 la_data_in[42]
*155 la_data_in[43]
*156 la_data_in[44]
*157 la_data_in[45]
*158 la_data_in[46]
*159 la_data_in[47]
*160 la_data_in[48]
*161 la_data_in[49]
*162 la_data_in[4]
*163 la_data_in[50]
*164 la_data_in[51]
*165 la_data_in[52]
*166 la_data_in[53]
*167 la_data_in[54]
*168 la_data_in[55]
*169 la_data_in[56]
*170 la_data_in[57]
*171 la_data_in[58]
*172 la_data_in[59]
*173 la_data_in[5]
*174 la_data_in[60]
*175 la_data_in[61]
*176 la_data_in[62]
*177 la_data_in[63]
*178 la_data_in[6]
*179 la_data_in[7]
*180 la_data_in[8]
*181 la_data_in[9]
*182 la_data_out[0]
*183 la_data_out[10]
*184 la_data_out[11]
*185 la_data_out[12]
*186 la_data_out[13]
*187 la_data_out[14]
*188 la_data_out[15]
*189 la_data_out[16]
*190 la_data_out[17]
*191 la_data_out[18]
*192 la_data_out[19]
*193 la_data_out[1]
*194 la_data_out[20]
*195 la_data_out[21]
*196 la_data_out[22]
*197 la_data_out[23]
*198 la_data_out[24]
*199 la_data_out[25]
*200 la_data_out[26]
*201 la_data_out[27]
*202 la_data_out[28]
*203 la_data_out[29]
*204 la_data_out[2]
*205 la_data_out[30]
*206 la_data_out[31]
*207 net254
*208 net255
*209 net256
*210 net257
*211 net258
*212 net259
*213 net260
*214 net261
*215 la_data_out[3]
*216 net262
*217 net263
*218 net264
*219 net265
*220 net266
*221 net267
*222 net268
*223 net269
*224 net270
*225 net271
*226 la_data_out[4]
*227 net272
*228 net273
*229 net274
*230 net275
*231 net276
*232 net277
*233 net278
*234 net279
*235 net280
*236 net281
*237 la_data_out[5]
*238 net282
*239 net283
*240 net284
*241 net285
*242 la_data_out[6]
*243 la_data_out[7]
*244 la_data_out[8]
*245 la_data_out[9]
*246 la_oenb[0]
*247 la_oenb[10]
*248 la_oenb[11]
*249 la_oenb[12]
*250 la_oenb[13]
*251 la_oenb[14]
*252 la_oenb[15]
*253 la_oenb[16]
*254 la_oenb[17]
*255 la_oenb[18]
*256 la_oenb[19]
*257 la_oenb[1]
*258 la_oenb[20]
*259 la_oenb[21]
*260 la_oenb[22]
*261 la_oenb[23]
*262 la_oenb[24]
*263 la_oenb[25]
*264 la_oenb[26]
*265 la_oenb[27]
*266 la_oenb[28]
*267 la_oenb[29]
*268 la_oenb[2]
*269 la_oenb[30]
*270 la_oenb[31]
*271 la_oenb[32]
*272 la_oenb[33]
*273 la_oenb[34]
*274 la_oenb[35]
*275 la_oenb[36]
*276 la_oenb[37]
*277 la_oenb[38]
*278 la_oenb[39]
*279 la_oenb[3]
*280 la_oenb[40]
*281 la_oenb[41]
*282 la_oenb[42]
*283 la_oenb[43]
*284 la_oenb[44]
*285 la_oenb[45]
*286 la_oenb[46]
*287 la_oenb[47]
*288 la_oenb[48]
*289 la_oenb[49]
*290 la_oenb[4]
*291 la_oenb[50]
*292 la_oenb[51]
*293 la_oenb[52]
*294 la_oenb[53]
*295 la_oenb[54]
*296 la_oenb[55]
*297 la_oenb[56]
*298 la_oenb[57]
*299 la_oenb[58]
*300 la_oenb[59]
*301 la_oenb[5]
*302 la_oenb[60]
*303 la_oenb[61]
*304 la_oenb[62]
*305 la_oenb[63]
*306 la_oenb[6]
*307 la_oenb[7]
*308 la_oenb[8]
*309 la_oenb[9]
*312 wb_clk_i
*313 wb_rst_i
*314 wbs_ack_o
*315 wbs_adr_i[0]
*316 wbs_adr_i[10]
*317 wbs_adr_i[11]
*318 wbs_adr_i[12]
*319 wbs_adr_i[13]
*320 wbs_adr_i[14]
*321 wbs_adr_i[15]
*322 wbs_adr_i[16]
*323 wbs_adr_i[17]
*324 wbs_adr_i[18]
*325 wbs_adr_i[19]
*326 wbs_adr_i[1]
*327 wbs_adr_i[20]
*328 wbs_adr_i[21]
*329 wbs_adr_i[22]
*330 wbs_adr_i[23]
*331 wbs_adr_i[24]
*332 wbs_adr_i[25]
*333 wbs_adr_i[26]
*334 wbs_adr_i[27]
*335 wbs_adr_i[28]
*336 wbs_adr_i[29]
*337 wbs_adr_i[2]
*338 wbs_adr_i[30]
*339 wbs_adr_i[31]
*340 wbs_adr_i[3]
*341 wbs_adr_i[4]
*342 wbs_adr_i[5]
*343 wbs_adr_i[6]
*344 wbs_adr_i[7]
*345 wbs_adr_i[8]
*346 wbs_adr_i[9]
*347 wbs_cyc_i
*348 wbs_dat_i[0]
*349 wbs_dat_i[10]
*350 wbs_dat_i[11]
*351 wbs_dat_i[12]
*352 wbs_dat_i[13]
*353 wbs_dat_i[14]
*354 wbs_dat_i[15]
*355 wbs_dat_i[16]
*356 wbs_dat_i[17]
*357 wbs_dat_i[18]
*358 wbs_dat_i[19]
*359 wbs_dat_i[1]
*360 wbs_dat_i[20]
*361 wbs_dat_i[21]
*362 wbs_dat_i[22]
*363 wbs_dat_i[23]
*364 wbs_dat_i[24]
*365 wbs_dat_i[25]
*366 wbs_dat_i[26]
*367 wbs_dat_i[27]
*368 wbs_dat_i[28]
*369 wbs_dat_i[29]
*370 wbs_dat_i[2]
*371 wbs_dat_i[30]
*372 wbs_dat_i[31]
*373 wbs_dat_i[3]
*374 wbs_dat_i[4]
*375 wbs_dat_i[5]
*376 wbs_dat_i[6]
*377 wbs_dat_i[7]
*378 wbs_dat_i[8]
*379 wbs_dat_i[9]
*380 wbs_dat_o[0]
*381 wbs_dat_o[10]
*382 wbs_dat_o[11]
*383 wbs_dat_o[12]
*384 wbs_dat_o[13]
*385 wbs_dat_o[14]
*386 wbs_dat_o[15]
*387 wbs_dat_o[16]
*388 wbs_dat_o[17]
*389 wbs_dat_o[18]
*390 wbs_dat_o[19]
*391 wbs_dat_o[1]
*392 wbs_dat_o[20]
*393 wbs_dat_o[21]
*394 wbs_dat_o[22]
*395 wbs_dat_o[23]
*396 wbs_dat_o[24]
*397 wbs_dat_o[25]
*398 wbs_dat_o[26]
*399 wbs_dat_o[27]
*400 wbs_dat_o[28]
*401 wbs_dat_o[29]
*402 wbs_dat_o[2]
*403 wbs_dat_o[30]
*404 wbs_dat_o[31]
*405 wbs_dat_o[3]
*406 wbs_dat_o[4]
*407 wbs_dat_o[5]
*408 wbs_dat_o[6]
*409 wbs_dat_o[7]
*410 wbs_dat_o[8]
*411 wbs_dat_o[9]
*412 wbs_sel_i[0]
*413 wbs_sel_i[1]
*414 wbs_sel_i[2]
*415 wbs_sel_i[3]
*416 wbs_stb_i
*417 wbs_we_i
*418 _000_
*419 _001_
*420 _002_
*421 _003_
*422 _004_
*423 _005_
*424 _006_
*425 _007_
*426 _008_
*427 _009_
*428 _010_
*429 _011_
*430 _012_
*431 _013_
*432 _014_
*433 _015_
*434 _016_
*435 _017_
*436 _018_
*437 _019_
*438 _020_
*439 _021_
*440 _022_
*441 _023_
*442 _024_
*443 _025_
*444 _026_
*445 _027_
*446 _028_
*447 _029_
*448 _030_
*449 _031_
*450 _032_
*451 _033_
*452 _034_
*453 _035_
*454 _036_
*455 _037_
*456 _038_
*457 _039_
*458 _040_
*459 _041_
*460 _042_
*461 _043_
*462 _044_
*463 _045_
*464 _046_
*465 _047_
*466 _048_
*467 _049_
*468 _050_
*469 _051_
*470 _052_
*471 _053_
*472 _054_
*473 _055_
*474 _056_
*475 _057_
*476 _058_
*477 _059_
*478 _060_
*479 _061_
*480 _062_
*481 _063_
*482 _064_
*483 _065_
*484 _066_
*485 _067_
*486 _068_
*487 _069_
*488 _070_
*489 _071_
*490 _072_
*491 _073_
*492 _074_
*493 _075_
*494 _076_
*495 _077_
*496 _078_
*497 _079_
*498 _080_
*499 _081_
*500 _082_
*501 _083_
*502 _084_
*503 _085_
*504 _086_
*505 _087_
*506 _088_
*507 _089_
*508 _090_
*509 _091_
*510 _092_
*511 _093_
*512 _094_
*513 _095_
*514 _096_
*515 _097_
*516 _098_
*517 _099_
*518 _100_
*519 _101_
*520 _102_
*521 _103_
*522 _104_
*523 _105_
*524 _106_
*525 _107_
*526 _108_
*527 _109_
*528 _110_
*529 _111_
*530 _112_
*531 _113_
*532 _114_
*533 _115_
*534 _116_
*535 _117_
*536 _118_
*537 _119_
*538 _120_
*539 _121_
*540 _122_
*541 _123_
*542 _124_
*543 _125_
*544 _126_
*545 _127_
*546 _128_
*547 _129_
*548 _130_
*549 _131_
*550 _132_
*551 _133_
*552 _134_
*553 _135_
*554 _136_
*555 _137_
*556 _138_
*557 _139_
*558 _140_
*559 _141_
*560 _142_
*561 _143_
*562 _144_
*563 _145_
*564 _146_
*565 _147_
*566 _148_
*567 _149_
*568 _150_
*569 _151_
*570 _152_
*571 _153_
*572 _154_
*573 _155_
*574 _156_
*575 _157_
*576 _158_
*577 _159_
*578 _160_
*579 _161_
*580 _162_
*581 _163_
*582 _164_
*583 _165_
*584 _166_
*585 _167_
*586 _168_
*587 _169_
*588 _170_
*589 _171_
*590 _172_
*591 _173_
*592 _174_
*593 _175_
*594 _176_
*595 _177_
*596 _178_
*597 _179_
*598 _180_
*599 _181_
*600 _182_
*601 _183_
*602 _184_
*603 _185_
*604 _186_
*605 _187_
*606 _188_
*607 _189_
*608 _190_
*609 _191_
*610 _192_
*611 _193_
*612 _194_
*613 _195_
*614 _196_
*615 _197_
*616 _198_
*617 _199_
*618 _200_
*619 _201_
*620 _202_
*621 _203_
*622 _204_
*623 _205_
*624 _206_
*625 _207_
*626 _208_
*627 _209_
*628 _210_
*629 _211_
*630 _212_
*631 _213_
*632 _214_
*633 _215_
*634 _216_
*635 _217_
*636 _218_
*637 _219_
*638 _220_
*639 _221_
*640 _222_
*641 _223_
*642 _224_
*643 _225_
*644 _226_
*645 _227_
*646 _228_
*647 _229_
*648 _230_
*649 _231_
*650 _232_
*651 _233_
*652 _234_
*653 _235_
*654 _236_
*655 _237_
*656 _238_
*657 _239_
*658 _240_
*659 _241_
*660 _242_
*661 _243_
*662 _244_
*663 _245_
*664 _246_
*665 _247_
*666 _248_
*667 _249_
*668 _250_
*669 _251_
*670 _252_
*671 _253_
*672 _254_
*673 _255_
*674 _256_
*675 _257_
*676 _258_
*677 _259_
*678 _260_
*679 _261_
*680 _262_
*681 _263_
*682 _264_
*683 _265_
*684 _266_
*685 _267_
*686 _268_
*687 _269_
*688 _270_
*689 _271_
*690 _272_
*691 _273_
*692 _274_
*693 _275_
*694 _276_
*695 _277_
*696 _278_
*697 _279_
*698 _280_
*699 _281_
*700 _282_
*701 _283_
*702 _284_
*703 _285_
*704 _286_
*705 _287_
*706 _288_
*707 _289_
*708 _290_
*709 _291_
*710 _292_
*711 _293_
*712 _294_
*713 _295_
*714 _296_
*715 _297_
*716 clknet_0_wb_clk_i
*717 clknet_3_0__leaf_wb_clk_i
*718 clknet_3_1__leaf_wb_clk_i
*719 clknet_3_2__leaf_wb_clk_i
*720 clknet_3_3__leaf_wb_clk_i
*721 clknet_3_4__leaf_wb_clk_i
*722 clknet_3_5__leaf_wb_clk_i
*723 clknet_3_6__leaf_wb_clk_i
*724 clknet_3_7__leaf_wb_clk_i
*725 net1
*726 net10
*727 net100
*728 net101
*729 net102
*730 net103
*731 net104
*732 net105
*733 net106
*734 net107
*735 net108
*736 net109
*737 net11
*738 net110
*739 net111
*740 net112
*741 net113
*742 net114
*743 net115
*744 net116
*745 net117
*746 net118
*747 net119
*748 net12
*749 net120
*750 net121
*751 net122
*752 net123
*753 net124
*754 net125
*755 net126
*756 net127
*757 net128
*758 net129
*759 net13
*760 net130
*761 net131
*762 net132
*763 net133
*764 net134
*765 net135
*766 net136
*767 net137
*768 net138
*769 net139
*770 net14
*771 net140
*772 net141
*773 net142
*774 net143
*775 net144
*776 net145
*777 net146
*778 net147
*779 net148
*780 net149
*781 net15
*782 net150
*783 net151
*784 net152
*785 net153
*786 net154
*787 net155
*788 net156
*789 net157
*790 net158
*791 net159
*792 net16
*793 net160
*794 net161
*795 net162
*796 net163
*797 net164
*798 net165
*799 net166
*800 net167
*801 net168
*802 net169
*803 net17
*804 net170
*805 net171
*806 net172
*807 net173
*808 net174
*809 net175
*810 net176
*811 net177
*812 net178
*813 net179
*814 net18
*815 net180
*816 net181
*817 net182
*818 net183
*819 net184
*820 net185
*821 net186
*822 net187
*823 net188
*824 net189
*825 net19
*826 net190
*827 net191
*828 net192
*829 net193
*830 net194
*831 net195
*832 net196
*833 net197
*834 net198
*835 net199
*836 net2
*837 net20
*838 net200
*839 net201
*840 net202
*841 net203
*842 net204
*843 net205
*844 net206
*845 net207
*846 net208
*847 net209
*848 net21
*849 net210
*850 net211
*851 net212
*852 net213
*853 net214
*854 net215
*855 net216
*856 net217
*857 net218
*858 net219
*859 net22
*860 net220
*861 net221
*862 net222
*863 net223
*864 net224
*865 net225
*866 net226
*867 net227
*868 net228
*869 net229
*870 net23
*871 net230
*872 net231
*873 net232
*874 net233
*875 net234
*876 net235
*877 net236
*878 net237
*879 net238
*880 net239
*881 net24
*882 net240
*883 net241
*884 net242
*885 net243
*886 net25
*887 net26
*888 net27
*889 net28
*890 net29
*891 net3
*892 net30
*893 net31
*894 net32
*895 net33
*896 net34
*897 net35
*898 net36
*899 net37
*900 net38
*901 net39
*902 net4
*903 net40
*904 net41
*905 net42
*906 net43
*907 net44
*908 net45
*909 net46
*910 net47
*911 net48
*912 net49
*913 net5
*914 net50
*915 net51
*916 net52
*917 net53
*918 net54
*919 net55
*920 net56
*921 net57
*922 net58
*923 net59
*924 net6
*925 net60
*926 net61
*927 net62
*928 net63
*929 net64
*930 net65
*931 net66
*932 net67
*933 net68
*934 net69
*935 net7
*936 net70
*937 net71
*938 net72
*939 net73
*940 net74
*941 net75
*942 net76
*943 net77
*944 net78
*945 net79
*946 net8
*947 net80
*948 net81
*949 net82
*950 net83
*951 net84
*952 net85
*953 net86
*954 net87
*955 net88
*956 net89
*957 net9
*958 net90
*959 net91
*960 net92
*961 net93
*962 net94
*963 net95
*964 net96
*965 net97
*966 net98
*967 net99
*968 ANTENNA__298__I
*969 ANTENNA__299__I
*970 ANTENNA__300__A1
*971 ANTENNA__300__A2
*972 ANTENNA__301__I
*973 ANTENNA__302__I
*974 ANTENNA__303__I
*975 ANTENNA__304__A2
*976 ANTENNA__305__A2
*977 ANTENNA__307__I
*978 ANTENNA__308__I
*979 ANTENNA__309__I
*980 ANTENNA__310__I
*981 ANTENNA__311__A1
*982 ANTENNA__311__A2
*983 ANTENNA__312__A1
*984 ANTENNA__312__A2
*985 ANTENNA__313__I0
*986 ANTENNA__313__I1
*987 ANTENNA__313__S
*988 ANTENNA__315__I1
*989 ANTENNA__315__S
*990 ANTENNA__317__I0
*991 ANTENNA__317__I1
*992 ANTENNA__317__S
*993 ANTENNA__319__I0
*994 ANTENNA__319__I1
*995 ANTENNA__319__S
*996 ANTENNA__321__I
*997 ANTENNA__322__I0
*998 ANTENNA__322__I1
*999 ANTENNA__322__S
*1000 ANTENNA__324__I0
*1001 ANTENNA__324__I1
*1002 ANTENNA__324__S
*1003 ANTENNA__326__I
*1004 ANTENNA__327__A1
*1005 ANTENNA__327__A2
*1006 ANTENNA__328__A1
*1007 ANTENNA__328__A2
*1008 ANTENNA__329__I0
*1009 ANTENNA__329__I1
*1010 ANTENNA__329__S
*1011 ANTENNA__331__I0
*1012 ANTENNA__331__I1
*1013 ANTENNA__331__S
*1014 ANTENNA__333__I
*1015 ANTENNA__334__A1
*1016 ANTENNA__334__A2
*1017 ANTENNA__335__A2
*1018 ANTENNA__336__I0
*1019 ANTENNA__336__I1
*1020 ANTENNA__336__S
*1021 ANTENNA__338__I0
*1022 ANTENNA__338__I1
*1023 ANTENNA__338__S
*1024 ANTENNA__340__I0
*1025 ANTENNA__340__I1
*1026 ANTENNA__340__S
*1027 ANTENNA__342__I
*1028 ANTENNA__343__A1
*1029 ANTENNA__343__A2
*1030 ANTENNA__344__A1
*1031 ANTENNA__344__A2
*1032 ANTENNA__345__I
*1033 ANTENNA__346__A1
*1034 ANTENNA__346__A2
*1035 ANTENNA__347__A1
*1036 ANTENNA__347__A2
*1037 ANTENNA__348__I0
*1038 ANTENNA__348__I1
*1039 ANTENNA__348__S
*1040 ANTENNA__350__I0
*1041 ANTENNA__350__I1
*1042 ANTENNA__350__S
*1043 ANTENNA__352__I0
*1044 ANTENNA__352__I1
*1045 ANTENNA__352__S
*1046 ANTENNA__354__I0
*1047 ANTENNA__354__I1
*1048 ANTENNA__354__S
*1049 ANTENNA__356__I0
*1050 ANTENNA__356__I1
*1051 ANTENNA__356__S
*1052 ANTENNA__358__I0
*1053 ANTENNA__358__I1
*1054 ANTENNA__358__S
*1055 ANTENNA__360__I
*1056 ANTENNA__361__A1
*1057 ANTENNA__361__A2
*1058 ANTENNA__362__A1
*1059 ANTENNA__362__A2
*1060 ANTENNA__363__I
*1061 ANTENNA__364__A1
*1062 ANTENNA__364__A2
*1063 ANTENNA__365__A2
*1064 ANTENNA__366__I0
*1065 ANTENNA__366__I1
*1066 ANTENNA__366__S
*1067 ANTENNA__368__I
*1068 ANTENNA__369__A1
*1069 ANTENNA__369__A2
*1070 ANTENNA__370__A2
*1071 ANTENNA__371__I0
*1072 ANTENNA__371__I1
*1073 ANTENNA__371__S
*1074 ANTENNA__373__I0
*1075 ANTENNA__373__I1
*1076 ANTENNA__373__S
*1077 ANTENNA__375__I0
*1078 ANTENNA__375__I1
*1079 ANTENNA__375__S
*1080 ANTENNA__377__I
*1081 ANTENNA__378__A1
*1082 ANTENNA__378__A2
*1083 ANTENNA__379__A2
*1084 ANTENNA__380__I
*1085 ANTENNA__381__A1
*1086 ANTENNA__381__A2
*1087 ANTENNA__382__A1
*1088 ANTENNA__382__A2
*1089 ANTENNA__383__I
*1090 ANTENNA__384__A1
*1091 ANTENNA__384__A2
*1092 ANTENNA__385__A2
*1093 ANTENNA__386__A1
*1094 ANTENNA__386__A2
*1095 ANTENNA__387__A1
*1096 ANTENNA__387__A2
*1097 ANTENNA__388__A1
*1098 ANTENNA__388__A2
*1099 ANTENNA__389__A1
*1100 ANTENNA__389__A2
*1101 ANTENNA__391__A1
*1102 ANTENNA__391__A2
*1103 ANTENNA__392__I
*1104 ANTENNA__393__A2
*1105 ANTENNA__394__A1
*1106 ANTENNA__394__A2
*1107 ANTENNA__395__A1
*1108 ANTENNA__396__A1
*1109 ANTENNA__396__A2
*1110 ANTENNA__397__A1
*1111 ANTENNA__397__A2
*1112 ANTENNA__398__A1
*1113 ANTENNA__398__A2
*1114 ANTENNA__399__A1
*1115 ANTENNA__399__A2
*1116 ANTENNA__400__A1
*1117 ANTENNA__400__A2
*1118 ANTENNA__401__A1
*1119 ANTENNA__401__A2
*1120 ANTENNA__402__A1
*1121 ANTENNA__402__A2
*1122 ANTENNA__402__B
*1123 ANTENNA__403__A1
*1124 ANTENNA__403__A2
*1125 ANTENNA__403__A3
*1126 ANTENNA__404__A1
*1127 ANTENNA__404__A2
*1128 ANTENNA__404__A3
*1129 ANTENNA__405__A1
*1130 ANTENNA__405__A2
*1131 ANTENNA__406__A1
*1132 ANTENNA__406__A2
*1133 ANTENNA__407__A1
*1134 ANTENNA__407__A2
*1135 ANTENNA__408__A1
*1136 ANTENNA__408__A2
*1137 ANTENNA__409__A1
*1138 ANTENNA__409__A2
*1139 ANTENNA__409__A4
*1140 ANTENNA__410__A1
*1141 ANTENNA__410__A2
*1142 ANTENNA__411__A1
*1143 ANTENNA__411__A2
*1144 ANTENNA__412__A1
*1145 ANTENNA__412__A2
*1146 ANTENNA__413__A1
*1147 ANTENNA__413__A2
*1148 ANTENNA__414__A1
*1149 ANTENNA__414__A2
*1150 ANTENNA__414__A3
*1151 ANTENNA__415__A1
*1152 ANTENNA__415__A2
*1153 ANTENNA__416__A1
*1154 ANTENNA__416__A2
*1155 ANTENNA__417__A1
*1156 ANTENNA__417__A2
*1157 ANTENNA__418__A1
*1158 ANTENNA__418__A2
*1159 ANTENNA__419__A2
*1160 ANTENNA__419__A4
*1161 ANTENNA__420__A1
*1162 ANTENNA__420__A2
*1163 ANTENNA__420__B
*1164 ANTENNA__421__A1
*1165 ANTENNA__421__A2
*1166 ANTENNA__422__A1
*1167 ANTENNA__422__A2
*1168 ANTENNA__422__B
*1169 ANTENNA__423__A1
*1170 ANTENNA__423__A2
*1171 ANTENNA__423__B
*1172 ANTENNA__425__A2
*1173 ANTENNA__426__A1
*1174 ANTENNA__427__A1
*1175 ANTENNA__427__A2
*1176 ANTENNA__427__B
*1177 ANTENNA__428__A1
*1178 ANTENNA__428__B1
*1179 ANTENNA__428__B2
*1180 ANTENNA__429__A1
*1181 ANTENNA__429__A2
*1182 ANTENNA__429__A3
*1183 ANTENNA__432__A1
*1184 ANTENNA__432__A2
*1185 ANTENNA__433__A1
*1186 ANTENNA__433__A2
*1187 ANTENNA__433__A3
*1188 ANTENNA__434__A1
*1189 ANTENNA__434__B1
*1190 ANTENNA__435__A1
*1191 ANTENNA__436__A1
*1192 ANTENNA__436__A2
*1193 ANTENNA__437__A1
*1194 ANTENNA__438__A1
*1195 ANTENNA__438__B1
*1196 ANTENNA__439__A1
*1197 ANTENNA__439__A2
*1198 ANTENNA__439__A3
*1199 ANTENNA__441__A1
*1200 ANTENNA__441__A2
*1201 ANTENNA__441__A3
*1202 ANTENNA__442__A1
*1203 ANTENNA__443__A1
*1204 ANTENNA__443__A2
*1205 ANTENNA__443__A3
*1206 ANTENNA__444__A1
*1207 ANTENNA__444__A2
*1208 ANTENNA__444__B1
*1209 ANTENNA__445__A1
*1210 ANTENNA__446__A1
*1211 ANTENNA__446__A2
*1212 ANTENNA__447__A1
*1213 ANTENNA__448__A1
*1214 ANTENNA__448__A2
*1215 ANTENNA__448__A3
*1216 ANTENNA__448__A4
*1217 ANTENNA__449__A1
*1218 ANTENNA__450__A1
*1219 ANTENNA__450__A2
*1220 ANTENNA__451__A1
*1221 ANTENNA__451__B1
*1222 ANTENNA__451__B2
*1223 ANTENNA__452__A1
*1224 ANTENNA__452__B
*1225 ANTENNA__453__A1
*1226 ANTENNA__454__A1
*1227 ANTENNA__455__A1
*1228 ANTENNA__455__B1
*1229 ANTENNA__455__C1
*1230 ANTENNA__455__C2
*1231 ANTENNA__456__A1
*1232 ANTENNA__457__A1
*1233 ANTENNA__457__A2
*1234 ANTENNA__458__A1
*1235 ANTENNA__458__A2
*1236 ANTENNA__459__A1
*1237 ANTENNA__460__A1
*1238 ANTENNA__460__A2
*1239 ANTENNA__460__B2
*1240 ANTENNA__461__B
*1241 ANTENNA__462__A1
*1242 ANTENNA__462__A2
*1243 ANTENNA__463__A1
*1244 ANTENNA__463__A2
*1245 ANTENNA__463__A3
*1246 ANTENNA__464__A1
*1247 ANTENNA__464__A2
*1248 ANTENNA__465__A1
*1249 ANTENNA__465__B1
*1250 ANTENNA__465__C1
*1251 ANTENNA__465__C2
*1252 ANTENNA__466__A1
*1253 ANTENNA__468__A1
*1254 ANTENNA__468__A2
*1255 ANTENNA__469__A1
*1256 ANTENNA__470__A1
*1257 ANTENNA__471__A1
*1258 ANTENNA__471__A2
*1259 ANTENNA__472__A1
*1260 ANTENNA__473__A1
*1261 ANTENNA__474__A1
*1262 ANTENNA__474__A2
*1263 ANTENNA__474__B1
*1264 ANTENNA__474__C1
*1265 ANTENNA__474__C2
*1266 ANTENNA__475__A1
*1267 ANTENNA__476__A1
*1268 ANTENNA__476__B
*1269 ANTENNA__477__A1
*1270 ANTENNA__477__A2
*1271 ANTENNA__478__A1
*1272 ANTENNA__478__A2
*1273 ANTENNA__480__A1
*1274 ANTENNA__481__A1
*1275 ANTENNA__481__B1
*1276 ANTENNA__481__B2
*1277 ANTENNA__482__B
*1278 ANTENNA__483__A1
*1279 ANTENNA__484__A1
*1280 ANTENNA__484__A2
*1281 ANTENNA__484__B1
*1282 ANTENNA__484__C1
*1283 ANTENNA__484__C2
*1284 ANTENNA__485__A1
*1285 ANTENNA__486__A2
*1286 ANTENNA__486__A3
*1287 ANTENNA__487__A1
*1288 ANTENNA__487__A2
*1289 ANTENNA__488__A1
*1290 ANTENNA__488__A2
*1291 ANTENNA__488__B1
*1292 ANTENNA__488__C1
*1293 ANTENNA__488__C2
*1294 ANTENNA__489__A1
*1295 ANTENNA__490__A1
*1296 ANTENNA__490__A2
*1297 ANTENNA__491__A1
*1298 ANTENNA__492__A1
*1299 ANTENNA__492__A2
*1300 ANTENNA__492__B1
*1301 ANTENNA__492__C1
*1302 ANTENNA__492__C2
*1303 ANTENNA__493__A1
*1304 ANTENNA__494__A1
*1305 ANTENNA__495__A1
*1306 ANTENNA__496__A1
*1307 ANTENNA__496__A2
*1308 ANTENNA__496__B1
*1309 ANTENNA__496__C1
*1310 ANTENNA__496__C2
*1311 ANTENNA__497__A1
*1312 ANTENNA__498__A1
*1313 ANTENNA__498__A2
*1314 ANTENNA__498__A3
*1315 ANTENNA__498__A4
*1316 ANTENNA__499__A1
*1317 ANTENNA__499__A2
*1318 ANTENNA__500__A1
*1319 ANTENNA__500__B1
*1320 ANTENNA__500__B2
*1321 ANTENNA__501__I
*1322 ANTENNA__502__A1
*1323 ANTENNA__502__A3
*1324 ANTENNA__503__A1
*1325 ANTENNA__503__A2
*1326 ANTENNA__504__A1
*1327 ANTENNA__505__A1
*1328 ANTENNA__506__A1
*1329 ANTENNA__506__B1
*1330 ANTENNA__506__C1
*1331 ANTENNA__506__C2
*1332 ANTENNA__507__A1
*1333 ANTENNA__508__A1
*1334 ANTENNA__508__A2
*1335 ANTENNA__509__A1
*1336 ANTENNA__509__A2
*1337 ANTENNA__510__A1
*1338 ANTENNA__511__A1
*1339 ANTENNA__512__A1
*1340 ANTENNA__513__A1
*1341 ANTENNA__514__A1
*1342 ANTENNA__515__A1
*1343 ANTENNA__515__B1
*1344 ANTENNA__515__C1
*1345 ANTENNA__515__C2
*1346 ANTENNA__516__A1
*1347 ANTENNA__517__I
*1348 ANTENNA__518__A1
*1349 ANTENNA__518__B
*1350 ANTENNA__519__A1
*1351 ANTENNA__519__A2
*1352 ANTENNA__520__A1
*1353 ANTENNA__520__A2
*1354 ANTENNA__520__A3
*1355 ANTENNA__521__A3
*1356 ANTENNA__522__A1
*1357 ANTENNA__522__B1
*1358 ANTENNA__522__B2
*1359 ANTENNA__523__A1
*1360 ANTENNA__524__A1
*1361 ANTENNA__524__A2
*1362 ANTENNA__525__A1
*1363 ANTENNA__525__B1
*1364 ANTENNA__525__C1
*1365 ANTENNA__525__C2
*1366 ANTENNA__526__A1
*1367 ANTENNA__528__A1
*1368 ANTENNA__528__A2
*1369 ANTENNA__528__A3
*1370 ANTENNA__529__A1
*1371 ANTENNA__529__A2
*1372 ANTENNA__529__B
*1373 ANTENNA__530__A2
*1374 ANTENNA__531__A1
*1375 ANTENNA__531__A2
*1376 ANTENNA__531__B1
*1377 ANTENNA__531__B2
*1378 ANTENNA__532__A1
*1379 ANTENNA__533__A1
*1380 ANTENNA__533__A2
*1381 ANTENNA__534__A1
*1382 ANTENNA__534__A2
*1383 ANTENNA__534__B1
*1384 ANTENNA__534__C1
*1385 ANTENNA__534__C2
*1386 ANTENNA__535__A1
*1387 ANTENNA__536__A1
*1388 ANTENNA__536__A2
*1389 ANTENNA__537__A1
*1390 ANTENNA__537__A2
*1391 ANTENNA__538__A1
*1392 ANTENNA__538__A2
*1393 ANTENNA__538__A3
*1394 ANTENNA__539__A1
*1395 ANTENNA__539__B
*1396 ANTENNA__539__C
*1397 ANTENNA__540__A1
*1398 ANTENNA__540__A2
*1399 ANTENNA__540__B1
*1400 ANTENNA__540__B2
*1401 ANTENNA__541__A2
*1402 ANTENNA__541__B
*1403 ANTENNA__542__A1
*1404 ANTENNA__542__A2
*1405 ANTENNA__543__A1
*1406 ANTENNA__543__A2
*1407 ANTENNA__543__B1
*1408 ANTENNA__543__C1
*1409 ANTENNA__543__C2
*1410 ANTENNA__544__A1
*1411 ANTENNA__545__A1
*1412 ANTENNA__545__A2
*1413 ANTENNA__546__A1
*1414 ANTENNA__546__A2
*1415 ANTENNA__547__A1
*1416 ANTENNA__547__A2
*1417 ANTENNA__548__A1
*1418 ANTENNA__548__B1
*1419 ANTENNA__548__C1
*1420 ANTENNA__548__C2
*1421 ANTENNA__549__A1
*1422 ANTENNA__550__A1
*1423 ANTENNA__550__A2
*1424 ANTENNA__551__A1
*1425 ANTENNA__552__A1
*1426 ANTENNA__553__A1
*1427 ANTENNA__553__A2
*1428 ANTENNA__554__A1
*1429 ANTENNA__555__A1
*1430 ANTENNA__556__A1
*1431 ANTENNA__556__B1
*1432 ANTENNA__556__C1
*1433 ANTENNA__556__C2
*1434 ANTENNA__557__A1
*1435 ANTENNA__558__A1
*1436 ANTENNA__558__A2
*1437 ANTENNA__559__A1
*1438 ANTENNA__559__A2
*1439 ANTENNA__559__A3
*1440 ANTENNA__560__I
*1441 ANTENNA__561__A1
*1442 ANTENNA__561__A2
*1443 ANTENNA__562__A1
*1444 ANTENNA__562__A3
*1445 ANTENNA__563__C
*1446 ANTENNA__564__A1
*1447 ANTENNA__564__B1
*1448 ANTENNA__564__B2
*1449 ANTENNA__565__A1
*1450 ANTENNA__566__A1
*1451 ANTENNA__566__A2
*1452 ANTENNA__567__A1
*1453 ANTENNA__567__A2
*1454 ANTENNA__567__B1
*1455 ANTENNA__567__C1
*1456 ANTENNA__567__C2
*1457 ANTENNA__568__A1
*1458 ANTENNA__569__A1
*1459 ANTENNA__569__A2
*1460 ANTENNA__569__A3
*1461 ANTENNA__570__A1
*1462 ANTENNA__570__A2
*1463 ANTENNA__570__B
*1464 ANTENNA__572__I
*1465 ANTENNA__573__A1
*1466 ANTENNA__573__A3
*1467 ANTENNA__574__A1
*1468 ANTENNA__574__A2
*1469 ANTENNA__574__C
*1470 ANTENNA__575__A1
*1471 ANTENNA__576__A1
*1472 ANTENNA__576__A2
*1473 ANTENNA__577__A1
*1474 ANTENNA__578__A1
*1475 ANTENNA__578__B1
*1476 ANTENNA__578__C1
*1477 ANTENNA__578__C2
*1478 ANTENNA__579__A1
*1479 ANTENNA__580__A1
*1480 ANTENNA__580__A2
*1481 ANTENNA__580__A3
*1482 ANTENNA__580__A4
*1483 ANTENNA__581__A1
*1484 ANTENNA__582__A1
*1485 ANTENNA__582__A2
*1486 ANTENNA__582__B1
*1487 ANTENNA__582__C1
*1488 ANTENNA__582__C2
*1489 ANTENNA__583__A1
*1490 ANTENNA__584__A1
*1491 ANTENNA__584__A2
*1492 ANTENNA__585__A1
*1493 ANTENNA__585__A2
*1494 ANTENNA__585__A3
*1495 ANTENNA__585__A4
*1496 ANTENNA__586__B
*1497 ANTENNA__587__A1
*1498 ANTENNA__588__A1
*1499 ANTENNA__588__A2
*1500 ANTENNA__588__B1
*1501 ANTENNA__588__B2
*1502 ANTENNA__589__B
*1503 ANTENNA__590__A1
*1504 ANTENNA__590__A2
*1505 ANTENNA__590__A3
*1506 ANTENNA__591__A2
*1507 ANTENNA__592__A1
*1508 ANTENNA__593__A1
*1509 ANTENNA__593__A2
*1510 ANTENNA__594__A1
*1511 ANTENNA__594__B1
*1512 ANTENNA__594__B2
*1513 ANTENNA__595__B
*1514 ANTENNA__596__CLK
*1515 ANTENNA__596__D
*1516 ANTENNA__597__CLK
*1517 ANTENNA__598__CLK
*1518 ANTENNA__599__CLK
*1519 ANTENNA__600__CLK
*1520 ANTENNA__601__CLK
*1521 ANTENNA__602__CLK
*1522 ANTENNA__603__CLK
*1523 ANTENNA__604__CLK
*1524 ANTENNA__605__CLK
*1525 ANTENNA__606__CLK
*1526 ANTENNA__607__CLK
*1527 ANTENNA__608__CLK
*1528 ANTENNA__609__CLK
*1529 ANTENNA__610__CLK
*1530 ANTENNA__611__CLK
*1531 ANTENNA__612__CLK
*1532 ANTENNA__613__CLK
*1533 ANTENNA__614__CLK
*1534 ANTENNA__615__CLK
*1535 ANTENNA__616__CLK
*1536 ANTENNA__617__CLK
*1537 ANTENNA__618__CLK
*1538 ANTENNA__619__CLK
*1539 ANTENNA__620__CLK
*1540 ANTENNA__621__CLK
*1541 ANTENNA__622__CLK
*1542 ANTENNA__623__CLK
*1543 ANTENNA__624__CLK
*1544 ANTENNA__625__CLK
*1545 ANTENNA__626__CLK
*1546 ANTENNA__627__CLK
*1547 ANTENNA__628__CLK
*1548 ANTENNA__629__CLK
*1549 ANTENNA__630__CLK
*1550 ANTENNA__631__CLK
*1551 ANTENNA__632__CLK
*1552 ANTENNA__633__CLK
*1553 ANTENNA__634__CLK
*1554 ANTENNA__635__CLK
*1555 ANTENNA__636__CLK
*1556 ANTENNA__637__CLK
*1557 ANTENNA__638__CLK
*1558 ANTENNA__639__CLK
*1559 ANTENNA__640__CLK
*1560 ANTENNA__641__CLK
*1561 ANTENNA__642__CLK
*1562 ANTENNA__643__CLK
*1563 ANTENNA__644__CLK
*1564 ANTENNA__645__CLK
*1565 ANTENNA__646__CLK
*1566 ANTENNA__647__CLK
*1567 ANTENNA__648__CLK
*1568 ANTENNA__649__CLK
*1569 ANTENNA__650__CLK
*1570 ANTENNA__651__CLK
*1571 ANTENNA__652__CLK
*1572 ANTENNA__653__CLK
*1573 ANTENNA__654__CLK
*1574 ANTENNA__655__CLK
*1575 ANTENNA__656__CLK
*1576 ANTENNA__657__CLK
*1577 ANTENNA__658__CLK
*1578 ANTENNA__659__CLK
*1579 ANTENNA__660__CLK
*1580 ANTENNA__703__I
*1581 ANTENNA__704__I
*1582 ANTENNA__705__I
*1583 ANTENNA__706__I
*1584 ANTENNA__707__I
*1585 ANTENNA__708__I
*1586 ANTENNA__709__I
*1587 ANTENNA__710__I
*1588 ANTENNA__711__I
*1589 ANTENNA__712__I
*1590 ANTENNA__713__I
*1591 ANTENNA__714__I
*1592 ANTENNA__715__I
*1593 ANTENNA__716__I
*1594 ANTENNA__717__I
*1595 ANTENNA__718__I
*1596 ANTENNA__719__I
*1597 ANTENNA__720__I
*1598 ANTENNA__721__I
*1599 ANTENNA__722__I
*1600 ANTENNA__723__I
*1601 ANTENNA__724__I
*1602 ANTENNA__725__I
*1603 ANTENNA__726__I
*1604 ANTENNA__727__I
*1605 ANTENNA__728__I
*1606 ANTENNA__729__I
*1607 ANTENNA__730__I
*1608 ANTENNA__731__I
*1609 ANTENNA__732__I
*1610 ANTENNA__733__I
*1611 ANTENNA__734__I
*1612 ANTENNA__735__I
*1613 ANTENNA__736__I
*1614 ANTENNA__737__I
*1615 ANTENNA__738__I
*1616 ANTENNA__739__I
*1617 ANTENNA__740__I
*1618 ANTENNA__741__I
*1619 ANTENNA__742__I
*1620 ANTENNA__743__I
*1621 ANTENNA__744__I
*1622 ANTENNA__745__I
*1623 ANTENNA__746__I
*1624 ANTENNA__747__I
*1625 ANTENNA__748__I
*1626 ANTENNA__749__I
*1627 ANTENNA__750__I
*1628 ANTENNA__751__I
*1629 ANTENNA__752__I
*1630 ANTENNA__753__I
*1631 ANTENNA__754__I
*1632 ANTENNA__755__I
*1633 ANTENNA__756__I
*1634 ANTENNA__757__I
*1635 ANTENNA__758__I
*1636 ANTENNA__759__I
*1637 ANTENNA__760__I
*1638 ANTENNA__761__I
*1639 ANTENNA__762__I
*1640 ANTENNA__763__I
*1641 ANTENNA__764__I
*1642 ANTENNA__765__I
*1643 ANTENNA__766__I
*1644 ANTENNA__767__I
*1645 ANTENNA__768__I
*1646 ANTENNA__769__I
*1647 ANTENNA__770__I
*1648 ANTENNA__771__I
*1649 ANTENNA_clkbuf_0_wb_clk_i_I
*1650 ANTENNA_clkbuf_3_0__f_wb_clk_i_I
*1651 ANTENNA_clkbuf_3_1__f_wb_clk_i_I
*1652 ANTENNA_clkbuf_3_2__f_wb_clk_i_I
*1653 ANTENNA_clkbuf_3_3__f_wb_clk_i_I
*1654 ANTENNA_clkbuf_3_4__f_wb_clk_i_I
*1655 ANTENNA_clkbuf_3_5__f_wb_clk_i_I
*1656 ANTENNA_clkbuf_3_6__f_wb_clk_i_I
*1657 ANTENNA_clkbuf_3_7__f_wb_clk_i_I
*1658 ANTENNA_fanout239_I
*1659 ANTENNA_fanout240_I
*1660 ANTENNA_fanout241_I
*1661 ANTENNA_fanout242_I
*1662 ANTENNA_fanout243_I
*1663 ANTENNA_input100_I
*1664 ANTENNA_input101_I
*1665 ANTENNA_input102_I
*1666 ANTENNA_input103_I
*1667 ANTENNA_input104_I
*1668 ANTENNA_input10_I
*1669 ANTENNA_input11_I
*1670 ANTENNA_input12_I
*1671 ANTENNA_input13_I
*1672 ANTENNA_input14_I
*1673 ANTENNA_input15_I
*1674 ANTENNA_input16_I